Version 4
SHEET 1 1872 680
WIRE 176 -48 -240 -48
WIRE 416 -48 176 -48
WIRE 576 -48 416 -48
WIRE 816 -48 672 -48
WIRE 960 -48 816 -48
WIRE 1072 -48 1024 -48
WIRE 1136 -48 1072 -48
WIRE 1200 -48 1136 -48
WIRE 1296 -48 1200 -48
WIRE 1584 -48 1488 -48
WIRE 1680 -48 1584 -48
WIRE 1808 -48 1680 -48
WIRE 176 -16 176 -48
WIRE 416 -16 416 -48
WIRE 1680 -16 1680 -48
WIRE 1808 -16 1808 -48
WIRE 1200 64 1200 -48
WIRE 1296 64 1200 64
WIRE 64 80 -48 80
WIRE 1680 80 1680 64
WIRE 1808 80 1808 48
WIRE 1808 80 1680 80
WIRE 176 96 176 64
WIRE 304 96 176 96
WIRE 416 96 416 64
WIRE 592 96 592 0
WIRE 592 96 416 96
WIRE 1680 96 1680 80
WIRE 960 112 688 112
WIRE 1072 112 1072 -48
WIRE 1072 112 1024 112
WIRE 176 128 176 96
WIRE 416 128 416 96
WIRE -240 160 -240 -48
WIRE -48 160 -48 80
WIRE 1392 160 1392 112
WIRE 64 208 64 80
WIRE 128 208 64 208
WIRE 304 208 304 96
WIRE 368 208 304 208
WIRE -240 304 -240 240
WIRE -48 304 -48 240
WIRE 176 416 176 224
WIRE 416 416 416 224
WIRE 416 416 176 416
WIRE 64 528 64 208
WIRE 688 528 688 112
WIRE 688 528 64 528
WIRE 416 640 416 416
WIRE 1584 640 1584 -48
WIRE 1584 640 416 640
FLAG -240 304 0
FLAG -48 304 0
FLAG -240 -48 VBAT
FLAG -48 80 VBUS
FLAG 816 -48 VBAT_SW
FLAG 1136 -48 VOUT
FLAG 304 96 VG1
FLAG 592 96 VG2
FLAG 1680 96 0
FLAG 1392 160 0
FLAG 1808 -48 V33
SYMBOL nmos 128 128 R0
SYMATTR InstName M1
SYMATTR Value BSS123
SYMBOL pmos 672 0 M270
SYMATTR InstName M3
SYMATTR Value FDS8962C_P
SYMBOL voltage -240 144 R0
WINDOW 123 0 0 Left 0
WINDOW 39 0 0 Left 0
SYMATTR InstName V1
SYMATTR Value 12
SYMBOL voltage -48 144 R0
WINDOW 123 0 0 Left 0
WINDOW 39 0 0 Left 0
SYMATTR InstName V2
SYMATTR Value PWL(0 0 50m 0 150m 5 350m 5 450m 0 500m 0)
SYMBOL res 160 -32 R0
SYMATTR InstName R1
SYMATTR Value 10Meg
SYMBOL res 400 -32 R0
SYMATTR InstName R2
SYMATTR Value 10Meg
SYMBOL schottky 960 -32 R270
WINDOW 0 32 32 VTop 2
WINDOW 3 0 32 VBottom 2
SYMATTR InstName D1
SYMATTR Value MBR0520L
SYMATTR Description Diode
SYMATTR Type diode
SYMBOL nmos 368 128 R0
SYMATTR InstName M2
SYMATTR Value BSS123
SYMBOL schottky 960 128 R270
WINDOW 0 32 32 VTop 2
WINDOW 3 0 32 VBottom 2
SYMATTR InstName D2
SYMATTR Value MBR0520L
SYMATTR Description Diode
SYMATTR Type diode
SYMBOL res 1664 -32 R0
SYMATTR InstName R3
SYMATTR Value 100k
SYMBOL PowerProducts\\ADP122-3.3 1392 64 R0
SYMATTR InstName U1
SYMBOL cap 1792 -16 R0
SYMATTR InstName C1
SYMATTR Value 1µ
TEXT -286 534 Left 2 !.tran 500m
