Version 4
SHEET 1 1684 916
WIRE 64 -112 -64 -112
WIRE 64 -48 64 -112
WIRE 112 -48 64 -48
WIRE 176 -48 112 -48
WIRE 208 -48 176 -48
WIRE 560 -48 496 -48
WIRE 592 -48 592 -176
WIRE 592 -48 560 -48
WIRE 112 -32 112 -48
WIRE 560 -32 560 -48
WIRE -64 -16 -64 -112
WIRE 176 48 176 -48
WIRE 208 48 176 48
WIRE 112 64 112 32
WIRE 560 64 560 32
WIRE -64 128 -64 64
WIRE 64 144 64 -48
WIRE 352 144 352 112
WIRE 992 144 992 128
WIRE 960 160 720 160
WIRE 1104 176 1024 176
WIRE 832 192 752 192
WIRE 928 192 912 192
WIRE 960 192 928 192
WIRE 1216 208 1216 176
WIRE 480 224 480 208
WIRE 64 240 64 224
WIRE 304 240 64 240
WIRE 448 240 368 240
WIRE 992 240 992 208
WIRE 304 256 304 240
WIRE 560 256 512 256
WIRE 656 256 656 224
WIRE 656 256 560 256
WIRE 720 256 720 160
WIRE 720 256 656 256
WIRE 64 272 64 240
WIRE 448 272 416 272
WIRE 480 304 480 288
WIRE 928 304 928 192
WIRE 960 304 928 304
WIRE 1104 304 1104 176
WIRE 1104 304 1040 304
WIRE 1216 304 1216 288
WIRE 1216 304 1104 304
WIRE 1344 304 1216 304
WIRE 416 320 416 272
WIRE 560 320 560 256
WIRE 560 320 416 320
WIRE 304 352 304 336
WIRE 368 352 368 240
WIRE 368 352 304 352
WIRE 304 368 304 352
WIRE 64 384 64 336
WIRE 960 400 928 400
WIRE 1120 400 1040 400
WIRE 1216 432 1216 400
WIRE 304 464 304 448
WIRE 992 528 992 512
WIRE 720 544 720 256
WIRE 800 544 720 544
WIRE 928 544 928 400
WIRE 928 544 880 544
WIRE 960 544 928 544
WIRE 1120 560 1120 400
WIRE 1120 560 1024 560
WIRE 1216 560 1216 512
WIRE 1216 560 1120 560
WIRE 1232 560 1216 560
WIRE 960 576 928 576
WIRE 64 592 64 576
WIRE 208 592 64 592
WIRE 512 592 512 576
WIRE 480 608 352 608
WIRE 992 608 992 592
WIRE 64 624 64 592
WIRE 208 624 208 592
WIRE 592 624 544 624
WIRE 752 624 752 192
WIRE 752 624 592 624
WIRE 480 640 448 640
WIRE 512 672 512 656
WIRE 448 688 448 640
WIRE 592 688 592 624
WIRE 592 688 448 688
WIRE 208 720 208 704
WIRE 352 720 352 608
WIRE 352 720 208 720
WIRE 64 752 64 704
WIRE 928 752 928 576
WIRE 928 752 64 752
WIRE 64 768 64 752
WIRE 208 768 208 720
WIRE 64 896 64 848
WIRE 208 896 208 848
FLAG 64 384 0
FLAG 304 464 0
FLAG 480 208 0
FLAG -64 128 0
FLAG -64 -112 Vbatt
FLAG 480 304 V3.3V
FLAG 64 896 0
FLAG 64 576 Vbatt
FLAG 656 224 Vref1.65
FLAG 992 240 0
FLAG 992 128 V3.3V
FLAG 992 512 0
FLAG 992 608 V3.3V
FLAG 1344 304 Vg
FLAG 1232 560 En
FLAG 208 896 0
FLAG 512 576 0
FLAG 512 672 V3.3V
FLAG 592 -176 V3.3V
FLAG 352 144 0
FLAG 560 64 0
FLAG 112 64 0
FLAG 1216 400 0
FLAG 1216 176 0
SYMBOL res 48 128 R0
WINDOW 3 38 81 Left 2
SYMATTR Value 1Meg
SYMATTR InstName R1
SYMBOL res 288 240 R0
SYMATTR InstName R2
SYMATTR Value 845K
SYMBOL res 288 352 R0
SYMATTR InstName R3
SYMATTR Value 1.65Meg
SYMBOL voltage -64 -32 R0
WINDOW 3 -210 202 Left 2
WINDOW 123 0 0 Left 0
WINDOW 39 0 0 Left 0
SYMATTR Value PWL(0 9 10 5 20 9)
SYMATTR InstName V1
SYMBOL res 48 608 R0
SYMATTR InstName R4
SYMATTR Value 6.34Meg
SYMBOL res 48 752 R0
SYMATTR InstName R5
SYMATTR Value 1.65Meg
SYMBOL res 1056 384 R90
WINDOW 0 0 56 VBottom 2
WINDOW 3 32 56 VTop 2
SYMATTR InstName R9
SYMATTR Value 10Meg
SYMBOL res 896 528 R90
WINDOW 0 0 56 VBottom 2
WINDOW 3 32 56 VTop 2
SYMATTR InstName R8
SYMATTR Value 186k
SYMBOL res 192 608 R0
SYMATTR InstName R6
SYMATTR Value 4.64Meg
SYMBOL res 192 752 R0
SYMATTR InstName R7
SYMATTR Value 1.65Meg
SYMBOL Opamps/LT1672 480 256 M180
SYMATTR InstName OP1
SYMBOL Opamps/LT1672 992 176 R0
SYMATTR InstName OP2
SYMBOL Opamps/LT1672 992 560 M180
SYMATTR InstName OP3
SYMBOL res 928 176 R90
WINDOW 0 0 56 VBottom 2
WINDOW 3 32 56 VTop 2
SYMATTR InstName R10
SYMATTR Value 402k
SYMBOL res 1056 288 R90
WINDOW 0 0 56 VBottom 2
WINDOW 3 32 51 VTop 2
SYMATTR InstName R11
SYMATTR Value 10Meg
SYMBOL Opamps/LT1672 512 624 M180
SYMATTR InstName OP4
SYMBOL References\\LT1389-2.5 64 304 R0
SYMATTR InstName D1
SYMBOL PowerProducts\\LT3009-3.3 352 0 R0
SYMATTR InstName U2
SYMBOL cap 96 -32 R0
SYMATTR InstName C1
SYMATTR Value 1µ
SYMBOL cap 544 -32 R0
SYMATTR InstName C2
SYMATTR Value 1µ
SYMBOL res 1200 192 R0
SYMATTR InstName R12
SYMATTR Value 1Meg
SYMBOL res 1200 416 R0
SYMATTR InstName R13
SYMATTR Value 1Meg
TEXT 944 0 Left 2 !.tran 0 20 0 0.1 startup uic
TEXT -232 304 Left 2 ;ZXRE330ASA-7DITR-ND\n3.3V\n1uA Cathode current\n$0.3
TEXT 944 24 Left 2 ;.dc V1 5.6 9 0.1
TEXT 1032 704 Left 2 ;TLV8544 QUAD OPAMP\n3.6V max\n0.5uA Supply current per channel\n0.1pA Bias current\nRail-to-Rail\n$0.3
TEXT 280 -232 Left 2 ;NCP551SN33\n3.3V, 12Vmax\n1uA quiescent current\n$0.2
TEXT 792 256 Left 2 ;6.0V - 6.5V
TEXT 960 472 Left 2 ;7.9V - 8.2V
TEXT 1032 624 Left 2 ;delta = +- VDD*R8/(R8+R9)\nfor inverting schmitt opamp
TEXT 1056 72 Left 2 ;delta = +- VDD*R10/R11\nfor non-inverting schmitt opamp
