Version 4
SHEET 1 1936 1076
WIRE 1472 -320 64 -320
WIRE 1616 -320 1472 -320
WIRE 1824 -320 1712 -320
WIRE 1856 -320 1824 -320
WIRE 64 -112 64 -320
WIRE 64 -112 -64 -112
WIRE 64 -48 64 -112
WIRE 112 -48 64 -48
WIRE 176 -48 112 -48
WIRE 208 -48 176 -48
WIRE 560 -48 496 -48
WIRE 592 -48 592 -176
WIRE 592 -48 560 -48
WIRE 672 -48 592 -48
WIRE 112 -32 112 -48
WIRE 560 -32 560 -48
WIRE -64 -16 -64 -112
WIRE 672 16 672 -48
WIRE 176 48 176 -48
WIRE 208 48 176 48
WIRE 1824 48 1824 -320
WIRE 112 64 112 32
WIRE 560 64 560 32
WIRE 1472 64 1472 -320
WIRE -64 128 -64 64
WIRE 352 144 352 112
WIRE 992 144 992 128
WIRE 672 160 672 96
WIRE 960 160 672 160
WIRE 1104 176 1024 176
WIRE 768 192 368 192
WIRE 832 192 768 192
WIRE 928 192 912 192
WIRE 960 192 928 192
WIRE 1472 208 1472 144
WIRE 1632 208 1632 -272
WIRE 1632 208 1472 208
WIRE 64 240 64 -48
WIRE 96 240 64 240
WIRE 992 240 992 208
WIRE 96 304 96 240
WIRE 768 304 768 192
WIRE 928 304 928 192
WIRE 928 304 768 304
WIRE 960 304 928 304
WIRE 1104 304 1104 176
WIRE 1104 304 1040 304
WIRE 1248 304 1104 304
WIRE 1344 304 1248 304
WIRE 1472 320 1472 208
WIRE 672 336 672 160
WIRE 96 400 96 384
WIRE 368 400 368 192
WIRE 368 400 96 400
WIRE 1248 400 1248 304
WIRE 1424 400 1248 400
WIRE 96 448 96 400
WIRE 1472 448 1472 416
WIRE 1824 448 1824 128
WIRE 1824 448 1472 448
WIRE 672 480 672 416
WIRE 1472 480 1472 448
WIRE 96 576 96 528
FLAG -64 128 0
FLAG -64 -112 Vbatt
FLAG 992 240 0
FLAG 992 128 V3.3V
FLAG 1344 304 Vg
FLAG 592 -176 V3.3V
FLAG 352 144 0
FLAG 560 64 0
FLAG 112 64 0
FLAG 672 480 0
FLAG 96 576 0
FLAG 1472 480 0
FLAG 1856 -320 VOUT
SYMBOL voltage -64 -32 R0
WINDOW 3 -210 202 Left 2
WINDOW 123 0 0 Left 0
WINDOW 39 0 0 Left 0
SYMATTR Value PWL(0 8.4 10 5 20 8.4)
SYMATTR InstName V1
SYMBOL Opamps/LT1672 992 176 R0
SYMATTR InstName OP2
SYMBOL res 928 176 R90
WINDOW 0 0 56 VBottom 2
WINDOW 3 32 56 VTop 2
SYMATTR InstName R10
SYMATTR Value 10K
SYMBOL PowerProducts\\LT3009-3.3 352 0 R0
SYMATTR InstName U2
SYMBOL cap 96 -32 R0
SYMATTR InstName C1
SYMATTR Value 1µ
SYMBOL cap 544 -32 R0
SYMATTR InstName C2
SYMATTR Value 1µ
SYMBOL res 656 0 R0
SYMATTR InstName R1
SYMATTR Value 1.65Meg
SYMBOL res 656 320 R0
SYMATTR InstName R2
SYMATTR Value 1.65Meg
SYMBOL res 80 288 R0
SYMATTR InstName R3
SYMATTR Value 2.15Meg
SYMBOL res 80 432 R0
SYMATTR InstName R4
SYMATTR Value 0.825Meg
SYMBOL res 1056 288 R90
WINDOW 0 0 56 VBottom 2
WINDOW 3 32 56 VTop 2
SYMATTR InstName R5
SYMATTR Value 10Meg
SYMBOL nmos 1424 320 R0
SYMATTR InstName M1
SYMATTR Value BSS123
SYMBOL res 1456 48 R0
SYMATTR InstName R6
SYMATTR Value 100k
SYMBOL pmos 1712 -272 M270
SYMATTR InstName M2
SYMATTR Value FDR840P
SYMBOL res 1808 32 R0
SYMATTR InstName R7
SYMATTR Value 10k
TEXT 944 0 Left 2 !.tran 0 20 0.1 0.1 startup uic
TEXT 944 24 Left 2 ;.dc V1 5.6 9 0.1
TEXT 280 -232 Left 2 ;NCP551SN33\n3.3V, 12Vmax\n1uA quiescent current\n$0.2
TEXT 792 256 Left 2 ;6.0V - 6.5V
TEXT 1056 72 Left 2 ;delta = +- VDD*R10/R11\nfor non-inverting schmitt opamp
