Version 4
SHEET 1 884 680
WIRE 272 -1616 192 -1616
WIRE 368 -1616 272 -1616
WIRE 432 -1616 368 -1616
WIRE 672 -1616 432 -1616
WIRE 192 -1568 192 -1616
WIRE 272 -1568 272 -1616
WIRE 672 -1568 672 -1616
WIRE 368 -1520 368 -1616
WIRE 432 -1520 432 -1616
WIRE 672 -1424 672 -1488
WIRE 192 -1264 192 -1488
WIRE 192 -1264 176 -1264
WIRE 368 -1264 192 -1264
WIRE 480 -1264 368 -1264
WIRE 704 -1264 560 -1264
WIRE 800 -1264 704 -1264
WIRE 368 -1248 368 -1264
WIRE 368 -1168 368 -1184
WIRE 368 -1168 304 -1168
WIRE 368 -1152 368 -1168
WIRE 176 -1072 176 -1136
WIRE 272 -1072 272 -1488
WIRE 272 -1072 176 -1072
WIRE 368 -1072 368 -1088
WIRE 368 -1072 272 -1072
WIRE 480 -1072 368 -1072
WIRE 640 -1072 560 -1072
WIRE 880 -1072 640 -1072
WIRE 704 -1008 704 -1264
WIRE 704 -1008 208 -1008
WIRE 640 -976 640 -1072
WIRE 640 -976 -48 -976
WIRE 208 -944 208 -1008
WIRE 368 -944 208 -944
WIRE 480 -944 368 -944
WIRE 704 -944 544 -944
WIRE -48 -800 -48 -976
WIRE -48 -800 -64 -800
WIRE 368 -800 -48 -800
WIRE 384 -800 384 -832
WIRE 384 -800 368 -800
WIRE 480 -800 384 -800
WIRE 640 -800 544 -800
WIRE 640 -736 640 -800
WIRE 640 -736 112 -736
WIRE 704 -704 704 -944
WIRE 704 -704 64 -704
WIRE 288 -656 288 -688
WIRE 64 -512 64 -704
WIRE 288 -512 288 -576
WIRE 288 -512 64 -512
WIRE 384 -512 288 -512
WIRE 544 -512 448 -512
WIRE 720 -512 544 -512
WIRE 112 -368 112 -736
WIRE 288 -368 288 -400
WIRE 288 -368 112 -368
WIRE 368 -368 288 -368
WIRE 544 -368 544 -512
WIRE 544 -368 448 -368
WIRE 288 -320 288 -368
WIRE 288 -224 288 -256
WIRE 720 -192 720 -512
WIRE 720 -192 -80 -192
WIRE -80 -144 -80 -192
WIRE 256 -144 -80 -144
WIRE 368 -144 256 -144
WIRE 544 -144 448 -144
WIRE 720 -144 544 -144
WIRE 256 -32 256 -144
WIRE 384 -32 256 -32
WIRE 544 -32 544 -144
WIRE 544 -32 448 -32
WIRE 128 -16 128 -48
WIRE 720 32 720 -144
WIRE 720 32 -80 32
WIRE -80 112 -80 32
WIRE 144 112 -80 112
WIRE 192 112 144 112
WIRE 320 112 272 112
WIRE 544 112 320 112
WIRE 800 112 544 112
WIRE 144 144 144 112
WIRE 320 144 320 112
WIRE 544 144 544 112
WIRE 0 240 0 208
WIRE 144 240 144 208
WIRE 320 240 320 208
WIRE 544 256 544 224
WIRE 880 256 544 256
WIRE 544 288 544 256
FLAG 144 240 0
FLAG 320 240 0
FLAG 544 288 0
FLAG 288 -224 0
FLAG 288 -688 0
FLAG 368 -944 RF_LP2+
FLAG 368 -800 RF_LP2-
FLAG 0 240 0
FLAG 128 -16 0
FLAG 544 112 RF_IN
FLAG 144 112 RF_LP
FLAG 256 -144 RF_NOTCH
FLAG 288 -512 RF_DIFF+
FLAG 288 -368 RF_DIFF-
FLAG 304 -1168 0
FLAG 176 -1264 RF_PI+
FLAG 176 -1072 RF_PI-
FLAG 672 -1424 0
SYMBOL cap 304 144 R0
SYMATTR InstName C1
SYMATTR Value 2p
SYMBOL cap 128 144 R0
SYMATTR InstName C2
SYMATTR Value 3p
SYMBOL ind 288 96 R90
WINDOW 0 5 56 VBottom 2
WINDOW 3 32 56 VTop 2
SYMATTR InstName L1
SYMATTR Value 1.5n
SYMBOL voltage 544 128 R0
WINDOW 123 24 124 Left 2
WINDOW 39 24 44 Left 2
SYMATTR Value2 AC 0.1
SYMATTR SpiceLine Rser=50
SYMATTR InstName V1
SYMATTR Value ""
SYMBOL cap 448 -48 R90
WINDOW 0 0 32 VBottom 2
WINDOW 3 32 32 VTop 2
SYMATTR InstName C3
SYMATTR Value 9p
SYMBOL ind 464 -160 R90
WINDOW 0 5 56 VBottom 2
WINDOW 3 32 56 VTop 2
SYMATTR InstName L2
SYMATTR Value 1.8n
SYMBOL cap 448 -528 R90
WINDOW 0 0 32 VBottom 2
WINDOW 3 32 32 VTop 2
SYMATTR InstName C4
SYMATTR Value 1.2p
SYMBOL cap 544 -960 R90
WINDOW 0 0 32 VBottom 2
WINDOW 3 32 32 VTop 2
SYMATTR InstName C5
SYMATTR Value 10p
SYMBOL cap 544 -816 R90
WINDOW 0 0 32 VBottom 2
WINDOW 3 32 32 VTop 2
SYMATTR InstName C6
SYMATTR Value 10p
SYMBOL cap 304 -256 R180
WINDOW 0 24 56 Left 2
WINDOW 3 24 8 Left 2
SYMATTR InstName C7
SYMATTR Value 1.2p
SYMBOL ind 464 -384 R90
WINDOW 0 5 56 VBottom 2
WINDOW 3 32 56 VTop 2
SYMATTR InstName L3
SYMATTR Value 2.5n
SYMBOL ind 304 -560 R180
WINDOW 0 36 80 Left 2
WINDOW 3 36 40 Left 2
SYMATTR InstName L4
SYMATTR Value 2.5n
SYMBOL res 272 -496 R0
SYMATTR InstName R2
SYMATTR Value 100
SYMBOL res 112 -144 R0
SYMATTR InstName R3
SYMATTR Value 50
SYMBOL res -16 112 R0
SYMATTR InstName R4
SYMATTR Value 50
SYMBOL res 368 -928 R0
SYMATTR InstName R1
SYMATTR Value 100
SYMBOL ind 576 -1088 R90
WINDOW 0 5 56 VBottom 2
WINDOW 3 32 56 VTop 2
SYMATTR InstName L6
SYMATTR Value 1.5n
SYMBOL ind 576 -1280 R90
WINDOW 0 5 56 VBottom 2
WINDOW 3 32 56 VTop 2
SYMATTR InstName L7
SYMATTR Value 1.5n
SYMBOL cap 352 -1248 R0
SYMATTR InstName C8
SYMATTR Value 2p
SYMBOL cap 352 -1152 R0
SYMATTR InstName C9
SYMATTR Value 2p
SYMBOL res 160 -1232 R0
SYMATTR InstName R5
SYMATTR Value 100
SYMBOL voltage 672 -1584 R0
WINDOW 123 24 124 Left 2
WINDOW 39 24 44 Left 2
WINDOW 3 24 152 Left 2
SYMATTR Value 3.3
SYMATTR InstName V2
SYMBOL ind 352 -1536 R0
SYMATTR InstName L5
SYMATTR Value 10n
SYMBOL ind 416 -1536 R0
SYMATTR InstName L8
SYMATTR Value 10n
SYMBOL res 256 -1584 R0
SYMATTR InstName R6
SYMATTR Value 50
SYMBOL res 176 -1584 R0
SYMATTR InstName R7
SYMATTR Value 50
TEXT -40 328 Left 2 !.ac dec 100000 10 100G
