Version 4
SHEET 1 2120 1076
WIRE 592 -144 592 -176
WIRE 1680 -144 592 -144
WIRE 64 -112 -64 -112
WIRE 592 -112 592 -144
WIRE -64 -16 -64 -112
WIRE 592 0 592 -32
WIRE -64 128 -64 64
WIRE 64 144 64 -112
WIRE 1520 176 1520 144
WIRE 1680 176 1680 -144
WIRE 1792 176 1680 176
WIRE 2032 176 1888 176
WIRE 480 224 480 208
WIRE 64 240 64 224
WIRE 304 240 64 240
WIRE 448 240 400 240
WIRE 304 256 304 240
WIRE 560 256 512 256
WIRE 656 256 656 224
WIRE 656 256 560 256
WIRE 784 256 656 256
WIRE 64 272 64 240
WIRE 448 272 416 272
WIRE 1520 288 1520 256
WIRE 1632 288 1520 288
WIRE 480 304 480 288
WIRE 416 320 416 272
WIRE 560 320 560 256
WIRE 560 320 416 320
WIRE 2032 320 2032 176
WIRE 1248 336 1248 304
WIRE 304 352 304 336
WIRE 304 352 240 352
WIRE 1216 352 1168 352
WIRE 304 368 304 352
WIRE 1360 368 1280 368
WIRE 1472 368 1360 368
WIRE 64 384 64 336
WIRE 1216 384 1168 384
WIRE 784 416 784 256
WIRE 1520 416 1520 384
WIRE 1632 416 1632 288
WIRE 1776 416 1632 416
WIRE 1808 416 1808 224
WIRE 1808 416 1776 416
WIRE 1248 432 1248 400
WIRE 2032 448 2032 400
WIRE 240 464 240 352
WIRE 240 464 128 464
WIRE 304 464 304 448
WIRE 400 464 400 240
WIRE 400 464 304 464
WIRE 304 480 304 464
WIRE 240 512 128 512
WIRE 544 560 464 560
WIRE 624 560 544 560
WIRE 784 560 784 496
WIRE 784 560 704 560
WIRE 880 560 880 528
WIRE 240 576 240 512
WIRE 304 576 304 560
WIRE 304 576 240 576
WIRE 784 576 784 560
WIRE 848 576 784 576
WIRE 304 592 304 576
WIRE 1008 592 912 592
WIRE 1040 592 1008 592
WIRE 1168 592 1168 384
WIRE 1168 592 1040 592
WIRE 1632 592 1632 416
WIRE 1632 592 1520 592
WIRE 848 608 784 608
WIRE 544 640 464 640
WIRE 624 640 544 640
WIRE 784 640 784 608
WIRE 784 640 704 640
WIRE 1248 640 1248 608
WIRE 880 656 880 624
WIRE 1168 656 1168 592
WIRE 1216 656 1168 656
WIRE 1360 672 1280 672
WIRE 1472 672 1360 672
WIRE 1216 688 1168 688
WIRE 304 704 304 672
WIRE 784 720 784 640
WIRE 848 720 784 720
WIRE 1008 720 1008 592
WIRE 1008 720 928 720
WIRE 1520 720 1520 688
WIRE 1248 736 1248 704
FLAG 64 384 0
FLAG 480 208 0
FLAG -64 128 0
FLAG -64 -112 Vbatt
FLAG 480 304 V3.3V
FLAG 656 224 Vref1.65
FLAG 592 -176 V3.3V
FLAG 880 528 0
FLAG 880 656 V3.3V
FLAG 1248 304 0
FLAG 1248 432 V3.3V
FLAG 1248 608 0
FLAG 1248 736 V3.3V
FLAG 1040 592 Vout
FLAG 1360 368 neg
FLAG 1360 672 pos
FLAG 1520 416 0
FLAG 1520 144 V3.3V
FLAG 1520 720 0
FLAG 2032 448 0
FLAG 1168 352 Vref1.55
FLAG 1168 688 Vref1.75
FLAG 1776 416 Vg
FLAG 304 704 0
FLAG 128 512 Vref1.55
FLAG 128 464 Vref1.75
FLAG 592 0 0
SYMBOL res 48 128 R0
WINDOW 3 38 81 Left 2
SYMATTR Value 500k
SYMATTR InstName R1
SYMBOL res 288 240 R0
SYMATTR InstName R2
SYMATTR Value 750k
SYMBOL res 288 576 R0
SYMATTR InstName R3
SYMATTR Value 1.55Meg
SYMBOL voltage -64 -32 R0
WINDOW 3 -210 202 Left 2
WINDOW 123 0 0 Left 0
WINDOW 39 0 0 Left 0
SYMATTR Value PWL(0 9 10 5 20 9)
SYMATTR InstName V1
SYMBOL Opamps/LT1672 480 256 M180
SYMATTR InstName OP1
SYMBOL References\\LT1389-2.5 64 304 R0
SYMATTR InstName D1
SYMBOL Opamps/LT1672 880 592 M180
SYMATTR InstName OP2
SYMBOL res 944 704 R90
WINDOW 0 0 56 VBottom 2
WINDOW 3 32 56 VTop 2
SYMATTR InstName R4
SYMATTR Value 10Meg
SYMBOL res 800 512 R180
WINDOW 0 36 76 Left 2
WINDOW 3 36 40 Left 2
SYMATTR InstName R5
SYMATTR Value 10Meg
SYMBOL res 608 576 R270
WINDOW 0 32 56 VTop 2
WINDOW 3 0 56 VBottom 2
SYMATTR InstName R6
SYMATTR Value 1Meg
SYMBOL res 608 656 R270
WINDOW 0 32 56 VTop 2
WINDOW 3 0 56 VBottom 2
SYMATTR InstName R7
SYMATTR Value 1Meg
SYMBOL Opamps/LT1672 1248 368 M180
SYMATTR InstName OP3
SYMBOL Opamps/LT1672 1248 672 M180
SYMATTR InstName OP4
SYMBOL res 1504 160 R0
SYMATTR InstName R12
SYMATTR Value 3Meg
SYMBOL nmos 1472 288 R0
SYMATTR InstName M1
SYMATTR Value BSS123
SYMBOL nmos 1472 592 R0
SYMATTR InstName M2
SYMATTR Value BSS123
SYMBOL pmos 1888 224 M270
SYMATTR InstName M3
SYMATTR Value AO6407
SYMBOL res 2016 304 R0
SYMATTR InstName R14
SYMATTR Value 100k
SYMBOL current 464 560 R0
WINDOW 3 -96 109 Left 2
WINDOW 123 0 0 Left 0
WINDOW 39 0 0 Left 0
SYMATTR Value SINE(0 1 0.1 0 0 0 100)
SYMATTR InstName I1
SYMBOL res 528 544 R0
SYMATTR InstName R13
SYMATTR Value 0.1
SYMBOL res 288 352 R0
SYMATTR InstName R15
SYMATTR Value 100k
SYMBOL res 288 464 R0
SYMATTR InstName R16
SYMATTR Value 100k
SYMBOL voltage 592 -128 R0
WINDOW 3 -88 51 Left 2
WINDOW 123 0 0 Left 0
WINDOW 39 0 0 Left 0
SYMATTR Value 3.3
SYMATTR InstName V2
TEXT -232 304 Left 2 ;ZXRE330ASA-7DITR-ND\n3.3V\n1uA Cathode current\n$0.3
TEXT 280 -232 Left 2 ;NCP551SN33\n3.3V, 12Vmax\n1uA quiescent current\n$0.2
TEXT -280 776 Left 2 !.tran 20
